test/data/dist/ut_trans_FaultStudy.Txt
FAULT STUDY REPORT

ALL-Node Fault Currents

Bus             Node 1  X/R        Node 2  X/R        Node 3  X/R   ...  (Amps)

"SOURCEBUS" 9999999999   4.0 9999999999   4.0 9999999999   4.0
"1"               947   0.5        947   0.5        947   0.5
"2"               889   1.2        889   1.2        889   1.2
"3"               708   1.0        708   1.0        708   1.0


ONE-Node to ground Faults

                                      pu Node Voltages (L-N Volts if no base)
Bus         Node  Amps         Node 1     Node 2     Node 3    ...

"SOURCEBUS"    1   9999999999          0.000      0.978      1.022
"SOURCEBUS"    2   9999999999          1.022      0.000      0.978
"SOURCEBUS"    3   9999999999          0.978      1.022      0.000
"1"            1         1385          0.000      0.896      0.836
"1"            2         1385          0.836      0.000      0.896
"1"            3         1385          0.896      0.836      0.000
"2"            1          979          0.000      0.946      0.857
"2"            2          979          0.857      0.000      0.946
"2"            3          979          0.946      0.857      0.000
"3"            1          785          0.000      0.971      0.828
"3"            2          785          0.828      0.000      0.971
"3"            3          785          0.971      0.828      0.000

Adjacent Node-Node Faults

                                        pu Node Voltages (L-N Volts if no base)
Bus          Node-Node      Amps        Node 1     Node 2     Node 3    ...

"SOURCEBUS"   1   2   109653899         1.003      0.992      1.000
"SOURCEBUS"   1   3   109653899         0.992      1.000      1.003
"SOURCEBUS"   2   3   109653899         1.000      1.003      0.992
"1"           1   2         820         0.499      0.499      0.999
"1"           1   3         820         0.499      0.999      0.499
"1"           2   3         820         0.999      0.499      0.499
"2"           1   2         770         0.472      0.472      0.945
"2"           1   3         770         0.472      0.945      0.472
"2"           2   3         770         0.945      0.472      0.472
"3"           1   2         613         0.472      0.472      0.945
"3"           1   3         613         0.472      0.945      0.472
"3"           2   3         613         0.945      0.472      0.472
